test/test_files/input_tests/raw_three_winding_transformer.raw
0, 100.00, 33, 0, 0, 60.00 / three-winding transformer regression
Three-winding transformer regression
Delta leakage impedances must be converted to three star legs.
1,'SOURCE      ',230.0000,3,1,1,1,1.000000,  0.000000
2,'LOAD A      ',230.0000,1,1,1,1,1.000000, -2.000000
3,'LOAD B      ',230.0000,1,1,1,1,1.000000, -3.000000
0 / END OF BUS DATA, BEGIN LOAD DATA
0 / END OF LOAD DATA, BEGIN FIXED SHUNT DATA
0 / END OF FIXED SHUNT DATA, BEGIN GENERATOR DATA
0 / END OF GENERATOR DATA, BEGIN BRANCH DATA
0 / END OF BRANCH DATA, BEGIN TRANSFORMER DATA
1,2,3,'1 ',1,1,1,0.00200,-0.00300,2,'THREE WINDING ',1,1,1.0000,0,1.0000,0,1.0000,0,1.0000
0.030000,0.300000,100.00,0.040000,0.400000,100.00,0.050000,0.500000,100.00,1.010000,1.500000
0.980000,230.000,2.000,100.00,110.00,120.00,0,4,1.100000,0.900000,1.100000,0.900000,33,0,0.00000,0.00000,0.000
1.020000,230.000,-1.000,90.00,100.00,110.00,0,4,1.100000,0.900000,1.100000,0.900000,33,0,0.00000,0.00000,0.000
1.000000,230.000,0.000,80.00,90.00,100.00,0,4,1.100000,0.900000,1.100000,0.900000,33,0,0.00000,0.00000,0.000
0 / END OF TRANSFORMER DATA, BEGIN AREA DATA
0 / END OF AREA DATA, BEGIN TWO-TERMINAL DC DATA
0 / END OF TWO-TERMINAL DC DATA, BEGIN VOLTAGE SOURCE CONVERTER DATA
0 / END OF VOLTAGE SOURCE CONVERTER DATA, BEGIN IMPEDANCE CORRECTION DATA
0 / END OF IMPEDANCE CORRECTION DATA, BEGIN MULTI-TERMINAL DC DATA
0 / END OF MULTI-TERMINAL DC DATA, BEGIN MULTI-SECTION LINE DATA
0 / END OF MULTI-SECTION LINE DATA, BEGIN ZONE DATA
0 / END OF ZONE DATA, BEGIN INTER-AREA TRANSFER DATA
0 / END OF INTER-AREA TRANSFER DATA, BEGIN OWNER DATA
0 / END OF OWNER DATA, BEGIN FACTS CONTROL DEVICE DATA
0 / END OF FACTS CONTROL DEVICE DATA, BEGIN SWITCHED SHUNT DATA
4,0,0,1,1.02500,0.99000,4,0,'        ',1.00
0 / END OF SWITCHED SHUNT DATA, BEGIN GNE DEVICE DATA
0 / END OF GNE DEVICE DATA
Q
